Version 4
SHEET 1 1572 680
WIRE 896 -16 736 -16
WIRE 1120 -16 896 -16
WIRE 1248 -16 1120 -16
WIRE 1504 -16 1344 -16
WIRE 1504 32 1504 -16
WIRE 736 48 736 -16
WIRE 1120 48 1120 -16
WIRE 1264 48 1264 32
WIRE 1280 48 1264 48
WIRE 896 96 896 64
WIRE 960 96 896 96
WIRE 1056 96 1040 96
WIRE 1280 144 1280 48
WIRE 1280 144 1120 144
WIRE 896 160 896 96
WIRE 1280 160 1280 144
WIRE 736 256 736 128
WIRE 896 256 896 224
WIRE 1280 256 1280 240
WIRE 1504 256 1504 112
FLAG 896 256 0
FLAG 736 256 0
FLAG 1280 256 0
FLAG 1504 256 0
SYMBOL res 1488 16 R0
SYMATTR InstName R1
SYMATTR Value 100
SYMBOL zener 880 224 M180
WINDOW 0 24 64 Left 2
WINDOW 3 24 0 Left 2
SYMATTR InstName D1
SYMATTR Value BZX384-B13
SYMATTR Description Diode
SYMATTR Type diode
SYMBOL res 880 -32 R0
SYMATTR InstName R2
SYMATTR Value 4k7
SYMBOL voltage 736 32 R0
WINDOW 3 -194 -117 Left 2
WINDOW 123 0 0 Left 0
WINDOW 39 0 0 Left 0
SYMATTR Value PULSE(0 25V 0 1s 1s 1s 6s)
SYMATTR InstName V3
SYMBOL pnp 1056 144 M180
WINDOW 0 54 31 Left 2
WINDOW 3 44 68 Left 2
SYMATTR InstName Q1
SYMATTR Value BC856B
SYMBOL res 1264 144 R0
SYMATTR InstName R3
SYMATTR Value 100k
SYMBOL pmos 1344 32 M270
SYMATTR InstName M2
SYMATTR Value SIA483DJ
SYMATTR Prefix X
SYMBOL res 1056 80 R90
WINDOW 0 0 56 VBottom 2
WINDOW 3 32 56 VTop 2
SYMATTR InstName R4
SYMATTR Value 4.7k
TEXT 56 -232 Left 2 !;dc V2 0 -5 10m V1 -2 -3 0.5
TEXT 56 -192 Left 2 !.lib SiA483DJ_PS.LIB
TEXT 56 -160 Left 2 ;.lib SiA483DJ_PS_RC.lib
TEXT 56 -272 Left 2 !.op
TEXT 64 -464 Left 2 ;Place the symbol for a pmos transistor.\nCTRL rigth-mouse-click on the placed symbol.\nA dialog window will pop-up.\nChange Prefix:MP to Prefix:X
TEXT 656 280 Left 2 !.tran 2s
TEXT 64 -128 Left 2 !.include BZX384-B13.prm
